tests/data/state_estimation/pandapower/asymmetric/distribution-case/asym_output_batch.json
[
  {
    "asym_gen": [
      {
        "id": 23,
        "energized": 1,
        "p": [
          15000.005570925372,
          15500.086169441702,
          14000.016437492373
        ],
        "q": [
          2999.991996541773,
          3500.0253568512753,
          2499.990612426494
        ],
        "i": [
          66.43627578737095,
          69.00487670988294,
          61.77238992519991
        ],
        "s": [
          15297.06243391544,
          15890.338220400467,
          14221.47718460629
        ],
        "pf": [
          0.9805807903136058,
          0.9754409223047407,
          0.9844277254578285
        ]
      }
    ],
    "asym_load": [
      {
        "id": 22,
        "energized": 1,
        "p": [
          20000.03788004276,
          18999.99147517825,
          20500.074003151778
        ],
        "q": [
          5000.016355573376,
          4500.0034831279045,
          5500.02569449766
        ],
        "i": [
          89.54163996894141,
          84.79688185775419,
          92.19882555057796
        ],
        "s": [
          20615.568843937985,
          19525.616697175265,
          21225.063410384282
        ],
        "pf": [
          0.9701424215574715,
          0.9730802242946285,
          0.9658427683717634
        ]
      }
    ],
    "asym_power_sensor": [
      {
        "id": 58,
        "energized": 1,
        "p_residual": [
          -0.08009278034311802,
          -0.039931977076819905,
          -0.13852792480710066
        ],
        "q_residual": [
          -0.023738494015398032,
          -0.011886624321407375,
          -0.04169435401564965
        ]
      },
      {
        "id": 59,
        "energized": 1,
        "p_residual": [
          0.08016929566497429,
          0.040662348386547954,
          0.1390876828248159
        ],
        "q_residual": [
          0.023771746478680928,
          0.012262725066862027,
          0.04207964424129962
        ]
      },
      {
        "id": 60,
        "energized": 1,
        "p_residual": [
          -0.06412468405344225,
          -0.03132581764357193,
          -0.10005191541928582
        ],
        "q_residual": [
          -0.03111656057587971,
          -0.015318958039578499,
          -0.04864492334869889
        ]
      },
      {
        "id": 61,
        "energized": 1,
        "p_residual": [
          0.06377403895252431,
          0.031796771058726726,
          0.10004119104882006
        ],
        "q_residual": [
          0.031009001794553754,
          0.015210299559217006,
          0.04819446710000822
        ]
      },
      {
        "id": 62,
        "energized": 1,
        "p_residual": [
          -0.04028928104101344,
          -0.048187112328124115,
          -0.06708453997861241
        ],
        "q_residual": [
          -0.015416183334523065,
          -0.012779604610657636,
          -0.016385145458023644
        ]
      },
      {
        "id": 63,
        "energized": 1,
        "p_residual": [
          0.0400082857722935,
          0.0473310621760629,
          0.0661239813043446
        ],
        "q_residual": [
          0.011405829407109176,
          0.01914731974014816,
          0.02766680987087433
        ]
      },
      {
        "id": 64,
        "energized": 1,
        "p_residual": [
          -0.07034496091185005,
          -0.1179662210415433,
          -0.1144786782129407
        ],
        "q_residual": [
          -0.03100555911785448,
          -0.046567153732616585,
          -0.04680689870417698
        ]
      },
      {
        "id": 65,
        "energized": 1,
        "p_residual": [
          0.07013019874546611,
          0.11657446329083054,
          0.11274211019392706
        ],
        "q_residual": [
          0.023360779021856327,
          0.04376456510385429,
          0.0403119285568206
        ]
      },
      {
        "id": 66,
        "energized": 1,
        "p_residual": [
          -0.0004108801446840754,
          0.00029020910521039203,
          -0.0009515606839131549
        ],
        "q_residual": [
          0.0030314387176681337,
          0.005641997826807405,
          0.003727272259547869
        ]
      },
      {
        "id": 67,
        "energized": 1,
        "p_residual": [
          1.109e-10,
          1.108e-10,
          1.11e-10
        ],
        "q_residual": [
          6.98e-10,
          6.98e-10,
          6.98e-10
        ]
      },
      {
        "id": 68,
        "energized": 1,
        "p_residual": [
          -0.053542027476001966,
          -0.03742098111473672,
          -0.03685074393087554
        ],
        "q_residual": [
          -0.016794719793119157,
          -0.012376088794989007,
          -0.014519001828352158
        ]
      },
      {
        "id": 69,
        "energized": 1,
        "p_residual": [
          0.05014405182977392,
          0.03492811176397659,
          0.03445208830258709
        ],
        "q_residual": [
          0.01576481107346909,
          0.01125014493832029,
          0.010575243929398606
        ]
      },
      {
        "id": 70,
        "energized": 1,
        "p_residual": [
          -0.05014405179970538,
          -0.03492811183567849,
          -0.034452088214694435
        ],
        "q_residual": [
          -0.015764810983263468,
          -0.01125014493832029,
          -0.01057524406123759
        ]
      },
      {
        "id": 71,
        "energized": 1,
        "p_residual": [
          0.04643771911912638,
          0.032227003311328474,
          0.03947397041413151
        ],
        "q_residual": [
          0.014427004518119402,
          0.00956707415025737,
          0.009319672863300488
        ]
      }
    ],
    "asym_voltage_sensor": [
      {
        "id": 50,
        "energized": 1,
        "u_residual": [
          -0.00037237463361376494,
          -0.0003581394792760196,
          -0.00045999778078378194
        ]
      },
      {
        "id": 51,
        "energized": 1,
        "u_residual": [
          -0.0004473728889396476,
          -7.453560911781764e-05,
          -0.0008143688491590855
        ]
      },
      {
        "id": 52,
        "energized": 1,
        "u_residual": [
          -0.00043451659748320535,
          -0.00038079186998454735,
          -0.000693926532151854
        ]
      },
      {
        "id": 53,
        "energized": 1,
        "u_residual": [
          -0.0006547266079633651,
          -0.00048143556841699105,
          -0.0008459905316477838
        ]
      },
      {
        "id": 54,
        "energized": 1,
        "u_residual": [
          -0.0004110420467189831,
          -0.0006249369532811321,
          -0.000707266657737146
        ]
      },
      {
        "id": 55,
        "energized": 1,
        "u_residual": [
          -0.00012334786319345565,
          -0.0008124697810275664,
          -0.00040932174763406775
        ]
      },
      {
        "id": 56,
        "energized": 1,
        "u_residual": [
          -0.0007706630852370016,
          -3.379152853421953e-05,
          -0.00044700063700259105
        ]
      },
      {
        "id": 57,
        "energized": 1,
        "u_residual": [
          -0.0008259162039647598,
          -0.0008714453051839416,
          -0.0005193630293264141
        ]
      }
    ],
    "line": [
      {
        "id": 9,
        "energized": 1,
        "loading": 0.019225940902224927,
        "p_from": [
          41919.46909278034,
          40918.16293197707,
          42420.15352792481
        ],
        "q_from": [
          12186.135738494013,
          11685.39488662432,
          12685.616694354017
        ],
        "i_from": [
          189.54115938919463,
          184.74270856158833,
          192.2593883061367
        ],
        "s_from": [
          43654.82554377658,
          42554.018745403686,
          44276.340140630244
        ],
        "p_to": [
          -41904.41816929567,
          -40904.341662348386,
          -42404.49008768283
        ],
        "q_to": [
          -12180.881771746479,
          -11680.866262725065,
          -12680.892079644242
        ],
        "i_to": [
          189.54117957703883,
          184.74272844374568,
          192.25940902224926
        ],
        "s_to": [
          43638.90629752838,
          42539.48522817124,
          44259.97970550795
        ]
      },
      {
        "id": 10,
        "energized": 1,
        "loading": 0.013388316826949484,
        "p_from": [
          26781.631124684052,
          26280.23732581764,
          27782.77405191542
        ],
        "q_from": [
          12870.641116560577,
          12369.63131895804,
          13370.364644923351
        ],
        "i_from": [
          129.0117567798495,
          126.09855464177726,
          133.88316826949483
        ],
        "s_from": [
          29713.787514383715,
          29045.802672128833,
          30832.599383736706
        ],
        "p_to": [
          -26775.329774038953,
          -26274.24079677106,
          -27775.63104119105
        ],
        "q_to": [
          -12863.859009001795,
          -12363.541210299558,
          -13363.2961944671
        ],
        "i_to": [
          129.0117567798495,
          126.09855464177726,
          133.88316826949483
        ],
        "s_to": [
          29705.17047774703,
          29037.783674128514,
          30823.097912400604
        ]
      },
      {
        "id": 11,
        "energized": 1,
        "loading": 0.010013232618557879,
        "p_from": [
          21904.38028928104,
          21904.350187112326,
          21904.416084539975
        ],
        "q_from": [
          7180.865416183336,
          7180.862779604611,
          7180.866385145459
        ],
        "i_from": [
          100.12139460133325,
          100.10868060794836,
          100.1323036917033
        ],
        "s_from": [
          23051.392669051078,
          23051.363243399697,
          23051.426985025584
        ],
        "p_to": [
          -21850.041008285774,
          -21850.043331062177,
          -21850.069123981306
        ],
        "q_to": [
          -7163.431405829407,
          -7163.43914731974,
          -7163.4476668098705
        ],
        "i_to": [
          100.12141709946556,
          100.10870313031994,
          100.13232618557879
        ],
        "s_to": [
          22994.326290843856,
          22994.330909740507,
          22994.358073185795
        ]
      },
      {
        "id": 12,
        "energized": 1,
        "loading": 0.019409853761598712,
        "p_from": [
          41775.33534496091,
          41774.326966221044,
          41775.64747867821
        ],
        "q_from": [
          15863.851005559118,
          15863.566567153734,
          15863.286806898705
        ],
        "i_from": [
          194.07469784143711,
          194.04755653172262,
          194.09853761598714
        ],
        "s_from": [
          44686.02031855735,
          44684.97664440769,
          44686.11183109043
        ],
        "p_to": [
          -41455.139130198746,
          -41454.33257446329,
          -41455.3917421102
        ],
        "q_to": [
          -15756.075360779021,
          -15755.863764565105,
          -15755.603311928557
        ],
        "i_to": [
          194.07469784143711,
          194.04755653172262,
          194.09853761598714
        ],
        "s_to": [
          44348.421291841754,
          44347.5921799791,
          44348.48971740382
        ]
      },
      {
        "id": 13,
        "energized": 1,
        "loading": 7.216413746321532e-06,
        "p_from": [
          0.0024108801446840757,
          -0.003290209105210392,
          0.0009515606839131549
        ],
        "q_from": [
          -16.573031438717667,
          -16.575641997826807,
          -16.563727272259545
        ],
        "i_from": [
          0.07216194942384416,
          0.07216413746321532,
          0.0721291953240412
        ],
        "s_from": [
          16.573031614073127,
          16.575642324374517,
          16.563727299592397
        ],
        "p_to": [
          0.0,
          0.0,
          0.0
        ],
        "q_to": [
          0.0,
          -0.0,
          0.0
        ],
        "i_to": [
          0.0,
          0.0,
          0.0
        ],
        "s_to": [
          0.0,
          0.0,
          0.0
        ]
      },
      {
        "id": 14,
        "energized": 1,
        "loading": 0.008323945525724253,
        "p_from": [
          18121.791542027477,
          18120.916420981117,
          18121.98485074393
        ],
        "q_from": [
          5756.071794719794,
          5755.825376088796,
          5755.584519001828
        ],
        "i_from": [
          83.20778104444827,
          83.19372394917761,
          83.21803450436511
        ],
        "s_from": [
          19013.98672553096,
          19013.078070007778,
          19014.023458646672
        ],
        "p_to": [
          -17443.00914405183,
          -17442.614928111765,
          -17443.079452088303
        ],
        "q_to": [
          -5598.6357648110725,
          -5598.543250144939,
          -5598.355575243931
        ],
        "i_to": [
          83.22920703201702,
          83.21517573915058,
          83.23945525724253
        ],
        "s_to": [
          18319.478443080672,
          18319.074814360327,
          18319.45976055871
        ]
      },
      {
        "id": 15,
        "energized": 1,
        "loading": 0.008325994948784114,
        "p_from": [
          17443.0091440518,
          17442.614928111838,
          17443.079452088212
        ],
        "q_from": [
          5598.635764810982,
          5598.543250144939,
          5598.355575244062
        ],
        "i_from": [
          83.22920703201676,
          83.21517573915088,
          83.23945525724234
        ],
        "s_from": [
          18319.478443080614,
          18319.074814360396,
          18319.459760558668
        ],
        "p_to": [
          -16750.03543771912,
          -16750.12322700331,
          -16749.949473970413
        ],
        "q_to": [
          -5266.659427004518,
          -5266.813567074149,
          -5266.558319672863
        ],
        "i_to": [
          83.24970260262403,
          83.23569911626109,
          83.25994948784114
        ],
        "s_to": [
          17558.513282305594,
          17558.643263934493,
          17558.400949832452
        ]
      }
    ],
    "node": [
      {
        "id": 1,
        "energized": 1,
        "u_pu": [
          0.9999999990111822,
          0.9999999977783817,
          1.0000000065995693
        ],
        "u": [
          11547.005372374633,
          11547.005358139479,
          11547.00545999778
        ],
        "u_angle": [
          0.0,
          -2.09439538496483,
          2.094395002968423
        ]
      },
      {
        "id": 2,
        "energized": 1,
        "u_pu": [
          0.9973081319255556,
          0.9974104405412307,
          0.9972057980162247
        ],
        "u": [
          230.31844737288895,
          230.34207453560913,
          230.2948143688492
        ],
        "u_angle": [
          -2.624456947500118,
          1.5644734490540169,
          -0.5302019538601704
        ]
      },
      {
        "id": 3,
        "energized": 1,
        "u_pu": [
          0.9969443455865911,
          0.9970696866352458,
          0.9968372156890851
        ],
        "u": [
          230.23443451659747,
          230.26338079187,
          230.20969392653217
        ],
        "u_angle": [
          -2.6244766473861114,
          1.5644599271750312,
          -0.5302031911903495
        ]
      },
      {
        "id": 4,
        "energized": 1,
        "u_pu": [
          0.997018911283229,
          0.9971350743405274,
          0.9968984959237829
        ],
        "u": [
          230.25165472660797,
          230.2784814355684,
          230.22384599053166
        ],
        "u_angle": [
          -2.624570846695292,
          1.564371632564423,
          -0.5303080998514448
        ]
      },
      {
        "id": 5,
        "energized": 1,
        "u_pu": [
          0.9944760715380189,
          0.9946025714136818,
          0.9943691010527377
        ],
        "u": [
          229.6644110420467,
          229.69362493695328,
          229.63970726665772
        ],
        "u_angle": [
          -2.624461633021871,
          1.5644749318434386,
          -0.5301874415629716
        ]
      },
      {
        "id": 6,
        "energized": 1,
        "u_pu": [
          0.9894865194598633,
          0.9896064168748099,
          0.9893665142065772
        ],
        "u": [
          228.5121233478632,
          228.53981246978103,
          228.48440932174765
        ],
        "u_angle": [
          -2.624279599034643,
          1.5646628212719476,
          -0.5300145423960769
        ]
      },
      {
        "id": 7,
        "energized": 1,
        "u_pu": [
          0.9530989349499739,
          0.9532386383941611,
          0.9529806200209509
        ],
        "u": [
          220.10877066308524,
          220.1410337915285,
          220.08144700063698
        ],
        "u_angle": [
          -2.622060262255345,
          1.5668822752888474,
          -0.5277829216769466
        ]
      },
      {
        "id": 8,
        "energized": 1,
        "u_pu": [
          0.9132836562640066,
          0.913444068110498,
          0.9131654154203115
        ],
        "u": [
          210.91382591620396,
          210.95087144530518,
          210.88651936302932
        ],
        "u_angle": [
          -2.6287765013129767,
          1.5601710303755105,
          -0.5344869354793802
        ]
      }
    ],
    "source": [
      {
        "id": 16,
        "energized": 1,
        "p": [
          69243.71594073948,
          67739.92640113046,
          69379.40158478823
        ],
        "q": [
          26929.336080553265,
          25904.426638823876,
          25114.558028783085
        ],
        "i": [
          6.434214025390469,
          6.2807664570220085,
          6.389977885751125
        ],
        "s": [
          74295.90391819194,
          72524.04393245581,
          73785.10953603327
        ],
        "pf": [
          0.9319991047822034,
          0.9340340489592532,
          0.9402900127281982
        ]
      }
    ],
    "sym_load": [
      {
        "id": 19,
        "energized": 1,
        "p": [
          21850.03859740588,
          21850.046621272482,
          21850.06817242128
        ],
        "q": [
          7180.004437268145,
          7180.0147893172725,
          7180.011394081562
        ],
        "i": [
          100.14391124265988,
          100.13122156034835,
          100.15481615731584
        ],
        "s": [
          22999.492394992478,
          22999.50324956163,
          22999.522663711927
        ],
        "pf": [
          0.9500226449416397,
          0.9500225454516695,
          0.9500226805530957
        ]
      },
      {
        "id": 20,
        "energized": 1,
        "p": [
          23333.347588171928,
          23333.416153481667,
          23333.406891366074
        ],
        "q": [
          10000.00356606,
          10000.038388476569,
          10000.01879292625
        ],
        "i": [
          111.09224529518201,
          111.07912150722545,
          111.1059850500821
        ],
        "s": [
          25385.924859883704,
          25386.001598569324,
          25385.985366278932
        ],
        "pf": [
          0.9191450662900458,
          0.919144988740435,
          0.9191452116080013
        ]
      },
      {
        "id": 21,
        "energized": 1,
        "p": [
          16750.03543771912,
          16750.12322700331,
          16749.949473970413
        ],
        "q": [
          5266.659427004518,
          5266.813567074149,
          5266.558319672863
        ],
        "i": [
          83.24970260262403,
          83.23569911626109,
          83.25994948784114
        ],
        "s": [
          17558.513282305594,
          17558.643263934493,
          17558.400949832452
        ],
        "pf": [
          0.9539552220858467,
          0.9539531600034334,
          0.953956429280096
        ]
      }
    ],
    "transformer": [
      {
        "id": 17,
        "energized": 1,
        "loading": 0.17508337887831826,
        "p_from": [
          34621.85797036974,
          33869.96320056523,
          34689.70079239411
        ],
        "q_from": [
          13464.668040276632,
          12952.213319411938,
          12557.279014391543
        ],
        "i_from": [
          3.2171070126952346,
          3.140383228511004,
          3.194988942875562
        ],
        "s_from": [
          37147.95195909597,
          36262.021966227905,
          36892.554768016635
        ],
        "p_to": [
          -34350.550108731535,
          -33599.200128906006,
          -35101.46378993025
        ],
        "q_to": [
          -12528.388427524882,
          -12027.513102786992,
          -13027.9906696437
        ],
        "i_to": [
          158.75379555599358,
          154.93077004501026,
          162.5793064686935
        ],
        "s_to": [
          36563.927707009476,
          35687.07498156707,
          37441.171203424004
        ]
      },
      {
        "id": 18,
        "energized": 1,
        "loading": 0.17508337887831826,
        "p_from": [
          34621.85797036974,
          33869.96320056523,
          34689.70079239411
        ],
        "q_from": [
          13464.668040276632,
          12952.213319411938,
          12557.279014391543
        ],
        "i_from": [
          3.2171070126952346,
          3.140383228511004,
          3.194988942875562
        ],
        "s_from": [
          37147.95195909597,
          36262.021966227905,
          36892.554768016635
        ],
        "p_to": [
          -34350.550108731535,
          -33599.200128906006,
          -35101.46378993025
        ],
        "q_to": [
          -12528.388427524882,
          -12027.513102786992,
          -13027.9906696437
        ],
        "i_to": [
          158.75379555599358,
          154.93077004501026,
          162.5793064686935
        ],
        "s_to": [
          36563.927707009476,
          35687.07498156707,
          37441.171203424004
        ]
      }
    ]
  },
  {
    "asym_gen": [
      {
        "id": 23,
        "energized": 1,
        "p": [
          15000.007111276322,
          15500.037996685354,
          14000.05712826412
        ],
        "q": [
          2999.9968902586406,
          3500.0134326144466,
          2500.0166006546274
        ],
        "i": [
          66.42487968721507,
          68.99282130544645,
          61.76197176364556
        ],
        "s": [
          15297.064904088684,
          15890.28860427561,
          14221.521810207503
        ],
        "pf": [
          0.9805807326650642,
          0.9754409364544046,
          0.9844274976406233
        ]
      }
    ],
    "asym_load": [
      {
        "id": 22,
        "energized": 1,
        "p": [
          20000.046185512885,
          19000.048377046278,
          20500.04677425451
        ],
        "q": [
          5000.009665449117,
          4500.013254110147,
          5500.010904005948
        ],
        "i": [
          89.55132604368004,
          84.80627837389727,
          92.20864029189302
        ],
        "s": [
          20615.57527883307,
          19525.67431914365,
          21225.033278909294
        ],
        "pf": [
          0.9701425216131526,
          0.9730802668575687,
          0.9658428566340492
        ]
      }
    ],
    "asym_power_sensor": [
      {
        "id": 58,
        "energized": 1,
        "p_residual": [
          -0.16506213470120673,
          -0.10874872987306124,
          -0.1216126542247231
        ],
        "q_residual": [
          -0.05254750914257533,
          -0.03661371158342197,
          -0.03988994747711194
        ]
      },
      {
        "id": 59,
        "energized": 1,
        "p_residual": [
          0.16475139500797079,
          0.10911181498133674,
          0.12126705367654365
        ],
        "q_residual": [
          0.052058432458331375,
          0.033048375045844715,
          0.03902793329716806
        ]
      },
      {
        "id": 60,
        "energized": 1,
        "p_residual": [
          -0.024294377227544274,
          -0.008803064506512914,
          -0.014370984511199076
        ],
        "q_residual": [
          -0.013933765599660752,
          -0.004718481581150735,
          -0.008099698609737027
        ]
      },
      {
        "id": 61,
        "energized": 1,
        "p_residual": [
          0.024442509969728,
          0.009031893237939254,
          0.015012735547770271
        ],
        "q_residual": [
          0.013975326533753144,
          0.005386885416902576,
          0.008602381694709319
        ]
      },
      {
        "id": 62,
        "energized": 1,
        "p_residual": [
          -0.11756585897397068,
          -0.06073477456144023,
          -0.0754927923507509
        ],
        "q_residual": [
          -0.04239297390675374,
          -0.021794257185995626,
          -0.027123920392132145
        ]
      },
      {
        "id": 63,
        "energized": 1,
        "p_residual": [
          0.11710561050500463,
          0.05959804455039445,
          0.07544439131294359
        ],
        "q_residual": [
          0.04203411907664304,
          0.02208973625082248,
          0.027141303998260792
        ]
      },
      {
        "id": 64,
        "energized": 1,
        "p_residual": [
          -0.03155379275920911,
          -0.047028557432586084,
          -0.07114099590440255
        ],
        "q_residual": [
          -0.010865595303129656,
          -0.016819515349930647,
          -0.026203047419348646
        ]
      },
      {
        "id": 65,
        "energized": 1,
        "p_residual": [
          0.03212618130780479,
          0.046224986824383585,
          0.07033478792439762
        ],
        "q_residual": [
          0.010827718917074309,
          0.0173724701880984,
          0.02534379986776636
        ]
      },
      {
        "id": 66,
        "energized": 1,
        "p_residual": [
          -0.044313793761778054,
          -0.0119784769580152,
          -0.015812662068626082
        ],
        "q_residual": [
          -0.019547401699608148,
          -0.0072040832142331954,
          -0.00795028996918486
        ]
      },
      {
        "id": 67,
        "energized": 1,
        "p_residual": [
          0.043241155029312875,
          0.012410905000463194,
          0.015388041253265131
        ],
        "q_residual": [
          0.01877397294685242,
          0.006270371909200545,
          0.007970473024643265
        ]
      },
      {
        "id": 68,
        "energized": 1,
        "p_residual": [
          -0.016076222771980543,
          -0.0032027429944236907,
          -0.0029836209804873226
        ],
        "q_residual": [
          -0.0008902045091742708,
          0.005625097226193952,
          0.005261634836632086
        ]
      },
      {
        "id": 69,
        "energized": 1,
        "p_residual": [
          0.015252820926431319,
          0.0039770257440295085,
          0.003124639632104409
        ],
        "q_residual": [
          -0.007360982552788644,
          0.0001662446533516257,
          -0.0010588989805436141
        ]
      },
      {
        "id": 70,
        "energized": 1,
        "p_residual": [
          -0.058493976037854445,
          -0.015387930675051878,
          -0.01751268070374993
        ],
        "q_residual": [
          -0.020412990250675184,
          -0.006436616945456238,
          -0.006911574236545537
        ]
      },
      {
        "id": 71,
        "energized": 1,
        "p_residual": [
          0.05376972603970964,
          0.014500586705915955,
          0.016002198485280207
        ],
        "q_residual": [
          0.018191874313668494,
          0.0051298544717637284,
          0.006987815673320519
        ]
      }
    ],
    "asym_voltage_sensor": [
      {
        "id": 50,
        "energized": 1,
        "u_residual": [
          -0.00023503635395377318,
          1.7644723581668557e-05,
          -0.00025395578001481754
        ]
      },
      {
        "id": 51,
        "energized": 1,
        "u_residual": [
          -0.0007481331221016207,
          -0.0003633947499756413,
          -0.00012299477027207306
        ]
      },
      {
        "id": 52,
        "energized": 1,
        "u_residual": [
          -0.0006036945059921334,
          -0.0005471162652674314,
          -0.0008634978234194512
        ]
      },
      {
        "id": 53,
        "energized": 1,
        "u_residual": [
          -0.00019474691259236957,
          1.9063149574199793e-07,
          -0.0004032577728998877
        ]
      },
      {
        "id": 54,
        "energized": 1,
        "u_residual": [
          -0.0008955149477496237,
          -0.00021989236004300289,
          -9.546323887828906e-05
        ]
      },
      {
        "id": 55,
        "energized": 1,
        "u_residual": [
          -0.00033756344775649386,
          -0.0008019635893442801,
          -0.0008170987580100974
        ]
      },
      {
        "id": 56,
        "energized": 1,
        "u_residual": [
          -0.0005353492542800169,
          -0.00023061774565343916,
          -0.000382297754909645
        ]
      },
      {
        "id": 57,
        "energized": 1,
        "u_residual": [
          -0.000980854415021218,
          -0.00012759845578272575,
          -8.029806258486666e-05
        ]
      }
    ],
    "line": [
      {
        "id": 9,
        "energized": 1,
        "loading": 0.02587704234986533,
        "p_from": [
          56142.4030621347,
...